INFO: [SIM 2] *************** CSIM start ***************
INFO: [SIM 4] CSIM will launch GCC as the compiler.
INFO: [SIM 7] User does not set_part, FPO V7 c-model will be used by default.
   Compiling ../../../../src/brl_corr_hls_tb.cpp in debug mode
   Compiling ../../../../src/brl_corr_hls.cpp in debug mode
   Generating csim.exe
=== Barrel Distortion Correction Test ===
Image dimensions: 128x100
Input file: ../../../src/img_in/img_128x100_in.txt
Output file: ../../../src/img_out/img_128x100_out.txt
Error: Cannot open input file ../../../src/img_in/img_128x100_in.txt
Failed to read input file, exiting.
CRITICAL WARNING: [SIM 100] 'csim_design' failed: nonzero return value.
INFO: [SIM 3] *************** CSIM finish ***************
